ANI
     RDKit          3D

  8  7  0  0  0  0  0  0  0  0999 V2000
   -1.1517    1.6503   -1.7307 C   0  0  0  0  0  0  0  0  0  0  0  0
   -0.3836    0.7056   -0.4464 S   0  0  0  0  0  0  0  0  0  0  0  0
   -0.1087    1.7083    0.5803 O   0  0  0  0  0  0  0  0  0  0  0  0
   -1.4117   -0.2724   -0.0974 O   0  0  0  0  0  0  0  0  0  0  0  0
    0.7981    0.1537   -1.1054 O   0  0  0  0  0  0  0  0  0  0  0  0
   -2.0590    2.1117   -1.3350 H   0  0  0  0  0  0  0  0  0  0  0  0
   -0.4548    2.4211   -2.0668 H   0  0  0  0  0  0  0  0  0  0  0  0
   -1.4007    0.9832   -2.5588 H   0  0  0  0  0  0  0  0  0  0  0  0
  1  2  1  0
  2  3  2  0
  2  4  1  0
  2  5  2  0
  1  6  1  0
  1  7  1  0
  1  8  1  0
M  CHG  1   4  -1
M  END
