CAT
     RDKit          3D

 33 33  0  0  0  0  0  0  0  0999 V2000
   -1.6722    2.9218    3.0511 C   0  0  0  0  0  0  0  0  0  0  0  0
   -0.3971    3.3882    2.3767 C   0  0  0  0  0  0  0  0  0  0  0  0
    0.0741    2.4050    1.4006 N   0  0  0  0  0  0  0  0  0  0  0  0
   -0.3112    2.3585    0.1160 C   0  0  0  0  0  0  0  0  0  0  0  0
    0.3231    1.3315   -0.4646 N   0  0  0  0  0  0  0  0  0  0  0  0
    0.1699    0.9225   -1.8747 C   0  0  0  0  0  0  0  0  0  0  0  0
   -0.4947   -0.4529   -2.0128 C   0  0  0  0  0  0  0  0  0  0  0  0
    0.3988   -1.4389   -1.4988 O   0  0  0  0  0  0  0  0  0  0  0  0
   -0.1866   -2.7422   -1.4148 C   0  0  0  0  0  0  0  0  0  0  0  0
    0.7382   -3.6263   -0.5744 C   0  0  0  0  0  0  0  0  0  0  0  0
    0.7920   -3.1583    0.7824 O   0  0  0  0  0  0  0  0  0  0  0  0
   -0.2004   -3.7600    1.6054 C   0  0  0  0  0  0  0  0  0  0  0  0
    1.1434    0.7103    0.4697 C   0  0  0  0  0  0  0  0  0  0  0  0
    0.9796    1.3831    1.6459 C   0  0  0  0  0  0  0  0  0  0  0  0
   -2.4653    2.7602    2.3141 H   0  0  0  0  0  0  0  0  0  0  0  0
   -2.0185    3.6659    3.7744 H   0  0  0  0  0  0  0  0  0  0  0  0
   -1.5105    1.9761    3.5782 H   0  0  0  0  0  0  0  0  0  0  0  0
   -0.5659    4.3362    1.8542 H   0  0  0  0  0  0  0  0  0  0  0  0
    0.3916    3.5531    3.1189 H   0  0  0  0  0  0  0  0  0  0  0  0
   -1.0125    3.0318   -0.3626 H   0  0  0  0  0  0  0  0  0  0  0  0
   -0.4319    1.6814   -2.3859 H   0  0  0  0  0  0  0  0  0  0  0  0
    1.1719    0.9157   -2.3188 H   0  0  0  0  0  0  0  0  0  0  0  0
   -1.4344   -0.4673   -1.4494 H   0  0  0  0  0  0  0  0  0  0  0  0
   -0.6969   -0.6697   -3.0668 H   0  0  0  0  0  0  0  0  0  0  0  0
   -1.1745   -2.6723   -0.9483 H   0  0  0  0  0  0  0  0  0  0  0  0
   -0.2865   -3.1484   -2.4264 H   0  0  0  0  0  0  0  0  0  0  0  0
    0.4271   -4.6762   -0.6116 H   0  0  0  0  0  0  0  0  0  0  0  0
    1.7592   -3.5580   -0.9648 H   0  0  0  0  0  0  0  0  0  0  0  0
   -0.1125   -3.3387    2.6104 H   0  0  0  0  0  0  0  0  0  0  0  0
   -0.0402   -4.8407    1.6667 H   0  0  0  0  0  0  0  0  0  0  0  0
   -1.2039   -3.5480    1.2261 H   0  0  0  0  0  0  0  0  0  0  0  0
    1.7347   -0.1425    0.1788 H   0  0  0  0  0  0  0  0  0  0  0  0
    1.3927    1.2658    2.6329 H   0  0  0  0  0  0  0  0  0  0  0  0
  1  2  1  0
  2  3  1  0
  3  4  2  0
  4  5  1  0
  5  6  1  0
  6  7  1  0
  7  8  1  0
  8  9  1  0
  9 10  1  0
 10 11  1  0
 11 12  1  0
  5 13  1  0
 13 14  2  0
 14  3  1  0
  1 15  1  0
  1 16  1  0
  1 17  1  0
  2 18  1  0
  2 19  1  0
  4 20  1  0
  6 21  1  0
  6 22  1  0
  7 23  1  0
  7 24  1  0
  9 25  1  0
  9 26  1  0
 10 27  1  0
 10 28  1  0
 12 29  1  0
 12 30  1  0
 12 31  1  0
 13 32  1  0
 14 33  1  0
M  CHG  1   3   1
M  END
